ptech18/ieee_tn/ckt5/Master_ckt5_z_y.dss

Clear

New Circuit.ckt5  pu=1.05  r1=0  x1=0.001  r0=0  x0=0.001  

Redirect  Transformers_ckt5_y.dss
Redirect  WireData_ckt5.dss
Redirect  LineGeometry_ckt5.dss
Redirect  LineCodes_ckt5.dss
Redirect  Lines_ckt5.dss
Redirect  LoadShapes_ckt5.dss
Redirect  XFR_Loads_ckt5.dss
!Redirect  Regulators_ckt5.dss # there are no regulators
!Redirect  Generators_ckt5.dss # there are no generators
!Redirect  Loads_ckt5.dss # needed to split to lines/loads
Redirect  Loads_lines_ckt5_z.dss
!Redirect  Loads_ckt5_z.dss
!Redirect  Capacitors_ckt5.dss

batchedit load..* vmaxpu=3.0 vminpu=0.3

Set voltagebases=[345, 115, 13.8, 12.47, 4.16, 0.48, 0.415, 0.208]
Calcvoltagebases

! Define bus coordinates
Buscoords  Buscoords_ckt5.dss

New EnergyMeter.sub element=Line.MDV201_connector terminal=1
solve
!plot profile phases=all
!show y